ckt5_VLN_Node.Txt

LINE-GROUND and LINE-LINE VOLTAGES BY BUS & NODE

Bus                            Node    VLN (kV)   Angle      pu     Base kV    Node-Node   VLL (kV)  Angle      pu

SOURCEBUS .................... 1       69.715 /_    0.0      1.05   115.000        1-2     120.75 /_   30.0      1.05
   -                           2       69.715 /_ -120.0      1.05   115.000        2-3     120.75 /_  -90.0      1.05
   -                           3       69.715 /_  120.0      1.05   115.000        3-1     120.75 /_  150.0      1.05
_MDV_SUB_1_LSB ............... 1       6.9908 /_  -39.9     0.971    12.470        1-2     12.092 /_  -10.3   0.96967
   -                           2       6.9362 /_ -160.4   0.96342    12.470        2-3     12.003 /_ -130.0   0.96252
   -                           3       6.9711 /_   80.3   0.96827    12.470        3-1     12.102 /_  110.3   0.97048
MDV201 ....................... 1       6.9907 /_  -39.9     0.971    12.470        1-2     12.092 /_  -10.3   0.96967
   -                           2       6.9362 /_ -160.4   0.96342    12.470        2-3     12.003 /_ -130.0   0.96252
   -                           3       6.9711 /_   80.3   0.96827    12.470        3-1     12.102 /_  110.3   0.97048
94743 ........................ 1       6.5056 /_  -43.0    0.9036    12.470
94744 ........................ 1       6.5053 /_  -43.0   0.90357    12.470
62244 ........................ 3       6.6366 /_   75.9   0.92181    12.470
62235 ........................ 3       6.6348 /_   75.9   0.92155    12.470
1144235 ...................... 1       6.6398 /_  -43.7   0.92225    12.470
1144234 ...................... 1        6.639 /_  -43.8   0.92214    12.470
39754 ........................ 2       6.2232 /_ -165.5   0.86439    12.470
MDV201_1160486ELB_INT ........ 2       6.2232 /_ -165.5   0.86438    12.470
1160486 ...................... 2       6.2232 /_ -165.5   0.86438    12.470
1160476 ...................... 2       6.2329 /_ -165.5   0.86573    12.470
1160473 ...................... 2       6.2308 /_ -165.5   0.86544    12.470
8163 ......................... 1       6.7381 /_  -42.8    0.9359    12.470        1-2     11.616 /_  -13.1   0.93155
   -                           2       6.6601 /_ -163.0   0.92507    12.470        2-3       11.6 /_ -133.3   0.93026
   -                           3       6.6907 /_   76.3   0.92932    12.470        3-1     11.577 /_  106.9   0.92842
8164 ......................... 1       6.7338 /_  -42.8   0.93531    12.470        1-2     11.604 /_  -13.1   0.93058
   -                           2       6.6546 /_ -163.0   0.92431    12.470        2-3      11.59 /_ -133.3   0.92944
   -                           3       6.6776 /_   76.2    0.9275    12.470        3-1      11.56 /_  106.8   0.92703
103730 ....................... 2       6.4103 /_ -165.1   0.89037    12.470
39610 ........................ 2       6.4102 /_ -165.1   0.89036    12.470
835 .......................... 1       6.8316 /_  -41.4   0.94889    12.470
842 .......................... 1       6.8293 /_  -41.4   0.94857    12.470
39775 ........................ 2       6.2337 /_ -165.5   0.86584    12.470
39760 ........................ 2       6.2327 /_ -165.5    0.8657    12.470
15004 ........................ 2       6.2285 /_ -165.5   0.86512    12.470
MDV201_1160480ELB_INT ........ 2       6.2285 /_ -165.5   0.86512    12.470
1160480 ...................... 2       6.2285 /_ -165.5   0.86512    12.470
1160492 ...................... 1       6.5551 /_  -43.0   0.91049    12.470
MDV201_8088ELB_INT ........... 1       6.5551 /_  -43.0   0.91049    12.470
8088 ......................... 1       6.5551 /_  -43.0   0.91049    12.470
829 .......................... 1       6.6713 /_  -42.7   0.92662    12.470        1-2     11.572 /_  -13.5   0.92799
   -                           2       6.6002 /_ -164.1   0.91675    12.470        2-3     11.548 /_ -133.2   0.92609
   -                           3       6.7894 /_   76.8   0.94304    12.470        3-1     11.625 /_  106.7   0.93221
834 .......................... 1       6.6525 /_  -42.7   0.92402    12.470        1-2     11.538 /_  -13.6   0.92523
   -                           2       6.5764 /_ -164.2   0.91344    12.470        2-3     11.515 /_ -133.2   0.92338
   -                           3       6.7752 /_   76.7   0.94106    12.470        3-1     11.594 /_  106.7   0.92978
15005 ........................ 2       6.2259 /_ -165.5   0.86476    12.470
MDV201_1160478ELB_INT ........ 2       6.2258 /_ -165.5   0.86475    12.470
1160478 ...................... 2       6.2258 /_ -165.5   0.86475    12.470
44582 ........................ 1       6.7451 /_  -42.7   0.93687    12.470        1-2     11.638 /_  -13.0   0.93331
   -                           2       6.6708 /_ -163.0   0.92656    12.470        2-3     11.619 /_ -133.1   0.93175
   -                           3       6.7151 /_   76.5    0.9327    12.470        3-1      11.61 /_  107.0   0.93103
8160 ......................... 1        6.744 /_  -42.7   0.93672    12.470        1-2     11.635 /_  -13.0     0.933
   -                           2       6.6688 /_ -163.0   0.92628    12.470        2-3     11.615 /_ -133.1   0.93147
   -                           3       6.7105 /_   76.5   0.93208    12.470        3-1     11.604 /_  107.0   0.93055
89783 ........................ 3       6.5989 /_   75.7   0.91657    12.470
89791 ........................ 3       6.5964 /_   75.7   0.91623    12.470
6584 ......................... 1       6.6405 /_  -43.7   0.92236    12.470        1-2     11.472 /_  -13.5   0.91995
   -                           2       6.6304 /_ -163.3   0.92095    12.470        2-3      11.51 /_ -133.8   0.92305
   -                           3       6.6039 /_   75.8   0.91726    12.470        3-1     11.441 /_  106.2   0.91751
99422 ........................ 1       6.6405 /_  -43.7   0.92235    12.470
8113 ......................... 1       6.7102 /_  -42.7   0.93203    12.470        1-2     11.648 /_  -13.3   0.93407
   -                           2       6.6675 /_ -163.7    0.9261    12.470        2-3     11.633 /_ -133.0   0.93287
   -                           3        6.812 /_   77.0   0.94617    12.470        3-1     11.688 /_  106.9   0.93728
8124 ......................... 1       6.7066 /_  -42.7   0.93152    12.470        1-2     11.644 /_  -13.3   0.93375
   -                           2       6.6685 /_ -163.7   0.92624    12.470        2-3     11.632 /_ -133.0   0.93279
   -                           3       6.8096 /_   77.0   0.94584    12.470        3-1     11.684 /_  106.9   0.93699
14880 ........................ 1       6.7306 /_  -42.3   0.93486    12.470        1-2     11.663 /_  -13.4   0.93531
   -                           2       6.6267 /_ -164.0   0.92043    12.470        2-3     11.613 /_ -133.0   0.93124
   -                           3       6.8364 /_   76.8   0.94956    12.470        3-1     11.698 /_  107.0   0.93811
63707 ........................ 1       6.7282 /_  -42.3   0.93453    12.470        1-2     11.659 /_  -13.4   0.93498
   -                           2        6.619 /_ -164.0   0.91936    12.470        2-3     11.605 /_ -133.1   0.93065
   -                           3       6.8387 /_   76.8   0.94987    12.470        3-1     11.696 /_  107.0   0.93793
74449 ........................ 3       6.4697 /_   74.9   0.89863    12.470
74450 ........................ 3       6.4694 /_   74.9   0.89858    12.470
14989 ........................ 2       6.3597 /_ -165.2   0.88334    12.470
100494 ....................... 2       6.3597 /_ -165.2   0.88334    12.470
63683 ........................ 1       6.7501 /_  -42.4   0.93758    12.470
   -                           3       6.8328 /_   77.2   0.94906    12.470        3-1     11.737 /_  107.2    0.9412
107110 ....................... 1       6.7501 /_  -42.4   0.93758    12.470
   -                           3       6.8328 /_   77.2   0.94905    12.470        3-1     11.737 /_  107.2    0.9412
1144242 ...................... 3       6.8085 /_   76.9   0.94569    12.470
8121 ......................... 3       6.8068 /_   76.9   0.94545    12.470
63668 ........................ 3       6.7433 /_   76.5   0.93662    12.470
63671 ........................ 3       6.7417 /_   76.5    0.9364    12.470
89784 ........................ 3       6.6101 /_   75.8   0.91812    12.470
89781 ........................ 3       6.6057 /_   75.7   0.91752    12.470
39734 ........................ 1       6.5881 /_  -44.0   0.91507    12.470
39751 ........................ 1       6.5871 /_  -44.0   0.91493    12.470
63657 ........................ 1       6.7946 /_  -42.0   0.94375    12.470        1-2     11.771 /_  -12.6   0.94394
   -                           2       6.7338 /_ -162.9   0.93531    12.470        2-3     11.733 /_ -132.3   0.94088
   -                           3       6.8525 /_   77.7   0.95179    12.470        3-1     11.796 /_  107.7   0.94596
63658 ........................ 1       6.7873 /_  -42.0   0.94273    12.470        1-2     11.761 /_  -12.7   0.94318
   -                           2       6.7259 /_ -163.0    0.9342    12.470        2-3     11.723 /_ -132.4   0.94011
   -                           3       6.8519 /_   77.6   0.95172    12.470        3-1     11.788 /_  107.6    0.9453
74445 ........................ 2       6.5602 /_ -163.6    0.9112    12.470
74448 ........................ 2       6.5564 /_ -163.6   0.91066    12.470
1012641 ...................... 3       6.7059 /_   76.5   0.93143    12.470
1012643 ...................... 3       6.7059 /_   76.5   0.93143    12.470
39570 ........................ 1        6.508 /_  -43.0   0.90395    12.470
39569 ........................ 1       6.5075 /_  -43.0   0.90388    12.470
14858 ........................ 1       6.7561 /_  -42.4    0.9384    12.470
14869 ........................ 1       6.7561 /_  -42.5    0.9384    12.470
89796 ........................ 3       6.6675 /_   75.9    0.9261    12.470
89790 ........................ 3        6.667 /_   75.8   0.92603    12.470
28271 ........................ 3       6.8467 /_   76.5   0.95099    12.470
28272 ........................ 3       6.8464 /_   76.5   0.95094    12.470
69478 ........................ 1       6.5472 /_  -42.9   0.90938    12.470        1-2     11.365 /_  -14.2   0.91139
   -                           2       6.4447 /_ -165.0   0.89516    12.470        2-3     11.347 /_ -133.5   0.90995
   -                           3       6.7484 /_   76.4   0.93734    12.470        3-1     11.476 /_  106.2   0.92027
69477 ........................ 1       6.5471 /_  -42.9   0.90938    12.470        1-2     11.365 /_  -14.2   0.91139
   -                           2       6.4447 /_ -165.0   0.89515    12.470        2-3     11.347 /_ -133.5   0.90995
   -                           3       6.7485 /_   76.4   0.93735    12.470        3-1     11.476 /_  106.2   0.92027
8175 ......................... 3       6.5925 /_   75.7   0.91568    12.470
8176 ......................... 3       6.5922 /_   75.7   0.91564    12.470
8184 ......................... 1       6.7169 /_  -42.2   0.93296    12.470        1-2      11.64 /_  -13.6   0.93347
   -                           2       6.5797 /_ -164.4    0.9139    12.470        2-3     11.568 /_ -133.1   0.92764
   -                           3       6.8514 /_   76.7   0.95164    12.470        3-1     11.685 /_  106.9   0.93708
1144230 ...................... 1       6.7169 /_  -42.2   0.93296    12.470
39595 ........................ 1       6.5279 /_  -42.9    0.9067    12.470        1-2     11.318 /_  -14.4   0.90762
   -                           2       6.3971 /_ -165.2   0.88854    12.470        2-3     11.291 /_ -133.6   0.90545
   -                           3       6.7344 /_   76.3   0.93539    12.470        3-1     11.438 /_  106.1   0.91725
39582 ........................ 1       6.5232 /_  -42.9   0.90606    12.470        1-2     11.306 /_  -14.4   0.90665
   -                           2       6.3836 /_ -165.2   0.88667    12.470        2-3     11.275 /_ -133.6   0.90419
   -                           3       6.7309 /_   76.2    0.9349    12.470        3-1     11.428 /_  106.1   0.91646
46385 ........................ 2       6.5452 /_ -163.7   0.90912    12.470
46386 ........................ 2       6.5431 /_ -163.7   0.90881    12.470
106884 ....................... 3       6.6381 /_   75.9   0.92201    12.470
1160493 ...................... 1        6.562 /_  -43.0   0.91144    12.470
MDV201_8075ELB_INT ........... 1       6.5619 /_  -43.0   0.91143    12.470
8075 ......................... 1       6.5619 /_  -43.0   0.91143    12.470
69460 ........................ 1        6.554 /_  -43.0   0.91033    12.470
MDV201_107997ELB_INT ......... 1        6.554 /_  -43.0   0.91033    12.470
107997 ....................... 1        6.554 /_  -43.0   0.91033    12.470
8180 ......................... 3       6.5921 /_   75.7   0.91562    12.470
1160461 ...................... 1       6.5852 /_  -42.9   0.91467    12.470
8100 ......................... 1       6.5814 /_  -42.9   0.91414    12.470
39776 ........................ 3       6.5947 /_   75.6   0.91599    12.470
33824 ........................ 3       6.5924 /_   75.6   0.91567    12.470
1140227 ...................... 1       6.7335 /_  -42.3   0.93526    12.470
14873 ........................ 1        6.733 /_  -42.3    0.9352    12.470
1160488 ...................... 2       6.6393 /_ -163.0   0.92218    12.470
MDV201_62249ELB_INT .......... 2       6.6393 /_ -163.0   0.92218    12.470
62249 ........................ 2       6.6393 /_ -163.0   0.92218    12.470
107106 ....................... 2       6.6852 /_ -163.3   0.92856    12.470
63634 ........................ 2       6.6823 /_ -163.3   0.92815    12.470
1160494 ...................... 1       6.5619 /_  -43.0   0.91143    12.470
1160467 ...................... 1       6.5607 /_  -43.0   0.91126    12.470
8185 ......................... 1       6.7166 /_  -42.2   0.93292    12.470
796 .......................... 1       6.9768 /_  -40.0   0.96906    12.470        1-2     12.068 /_  -10.4    0.9678
   -                           2       6.9226 /_ -160.5   0.96154    12.470        2-3     11.983 /_ -130.1   0.96093
   -                           3       6.9612 /_   80.1   0.96689    12.470        3-1      12.08 /_  110.1   0.96874
791 .......................... 1        6.962 /_  -40.2   0.96701    12.470        1-2     12.044 /_  -10.6   0.96585
   -                           2       6.9085 /_ -160.7   0.95958    12.470        2-3     11.963 /_ -130.3   0.95933
   -                           3       6.9516 /_   80.0   0.96556    12.470        3-1     12.058 /_  109.9   0.96693
62306 ........................ 3       6.5995 /_   75.7   0.91666    12.470
62303 ........................ 3       6.5988 /_   75.7   0.91656    12.470
14839 ........................ 3        6.837 /_   76.5   0.94964    12.470
100478 ....................... 3        6.837 /_   76.5   0.94964    12.470
58441 ........................ 1       6.5245 /_  -43.0   0.90624    12.470        1-2     11.281 /_  -14.5   0.90464
   -                           2       6.3651 /_ -165.1    0.8841    12.470        2-3     11.235 /_ -133.8   0.90099
   -                           3       6.6745 /_   75.9   0.92707    12.470        3-1     11.366 /_  106.1   0.91151
58446 ........................ 1       6.5245 /_  -43.0   0.90624    12.470        1-2      11.28 /_  -14.5   0.90455
   -                           2       6.3645 /_ -165.1   0.88401    12.470        2-3     11.234 /_ -133.8   0.90085
   -                           3       6.6718 /_   75.9   0.92669    12.470        3-1     11.364 /_  106.0   0.91127
112112 ....................... 2       6.3744 /_ -165.2   0.88539    12.470
52515 ........................ 2       6.3734 /_ -165.2   0.88525    12.470
846 .......................... 1       6.6973 /_  -42.7   0.93024    12.470        1-2     11.635 /_  -13.3   0.93304
   -                           2       6.6713 /_ -163.7   0.92662    12.470        2-3     11.631 /_ -133.0   0.93274
   -                           3       6.8079 /_   77.0   0.94561    12.470        3-1     11.679 /_  106.8   0.93661
98795 ........................ 1       6.6973 /_  -42.7   0.93024    12.470        1-2     11.635 /_  -13.3   0.93304
   -                           2       6.6713 /_ -163.7   0.92662    12.470        2-3     11.631 /_ -133.0   0.93274
   -                           3       6.8079 /_   77.0   0.94561    12.470        3-1     11.679 /_  106.8   0.93661
39623 ........................ 2       6.5016 /_ -164.6   0.90305    12.470
39602 ........................ 2       6.5008 /_ -164.6   0.90294    12.470
56777 ........................ 1       6.6267 /_  -43.8   0.92042    12.470        1-2     11.449 /_  -13.6   0.91808
   -                           2        6.617 /_ -163.4   0.91909    12.470        2-3      11.49 /_ -133.9   0.92137
   -                           3       6.5919 /_   75.7   0.91559    12.470        3-1     11.418 /_  106.0    0.9156
56778 ........................ 1       6.6272 /_  -43.8    0.9205    12.470        1-2     11.446 /_  -13.7   0.91785
   -                           2       6.6104 /_ -163.5   0.91816    12.470        2-3     11.483 /_ -134.0   0.92084
   -                           3        6.589 /_   75.6   0.91519    12.470        3-1     11.411 /_  106.0   0.91511
44586 ........................ 1       6.7223 /_  -43.0   0.93372    12.470        1-2     11.574 /_  -13.2   0.92812
   -                           2       6.6422 /_ -163.0   0.92259    12.470        2-3     11.565 /_ -133.5   0.92746
   -                           3       6.6448 /_   76.0   0.92295    12.470        3-1     11.517 /_  106.7   0.92358
62239 ........................ 1       6.7194 /_  -43.0   0.93331    12.470        1-2     11.569 /_  -13.2   0.92778
   -                           2       6.6413 /_ -163.0   0.92246    12.470        2-3     11.563 /_ -133.5   0.92725
   -                           3       6.6425 /_   76.0   0.92263    12.470        3-1     11.513 /_  106.6   0.92328
46394 ........................ 1       6.6319 /_  -43.7   0.92115    12.470        1-2     11.433 /_  -13.8   0.91688
   -                           2       6.5803 /_ -163.6   0.91399    12.470        2-3     11.454 /_ -134.1    0.9185
   -                           3       6.5743 /_   75.4   0.91315    12.470        3-1     11.383 /_  106.0   0.91283
46393 ........................ 1       6.6319 /_  -43.7   0.92115    12.470        1-2     11.433 /_  -13.8   0.91688
   -                           2       6.5803 /_ -163.6   0.91399    12.470        2-3     11.454 /_ -134.1    0.9185
   -                           3       6.5743 /_   75.4   0.91315    12.470        3-1     11.383 /_  106.0   0.91283
1144254 ...................... 2       6.6964 /_ -163.0   0.93012    12.470
28246 ........................ 2       6.6963 /_ -163.0    0.9301    12.470
14996 ........................ 2       6.2391 /_ -165.5   0.86659    12.470
39771 ........................ 2       6.2384 /_ -165.5    0.8665    12.470
74432 ........................ 1        6.629 /_  -43.7   0.92075    12.470
108776 ....................... 1        6.629 /_  -43.7   0.92075    12.470
1160489 ...................... 1       6.8411 /_  -41.3   0.95021    12.470
MDV201_795ELB_INT ............ 1       6.8411 /_  -41.3   0.95021    12.470
795 .......................... 1       6.8411 /_  -41.3   0.95021    12.470
14879 ........................ 1       6.7335 /_  -42.3   0.93526    12.470        1-2     11.668 /_  -13.3    0.9357
   -                           2       6.6359 /_ -163.9   0.92171    12.470        2-3     11.621 /_ -133.0   0.93195
   -                           3       6.8337 /_   76.9   0.94918    12.470        3-1     11.701 /_  107.0   0.93834
8099 ......................... 3        6.814 /_   76.9   0.94644    12.470
8103 ......................... 3        6.813 /_   76.9    0.9463    12.470
1000983 ...................... 1       6.6263 /_  -43.8   0.92037    12.470
56768 ........................ 1       6.6234 /_  -43.8   0.91997    12.470
62265 ........................ 1       6.6944 /_  -43.2   0.92983    12.470        1-2     11.538 /_  -13.3   0.92526
   -                           2       6.6366 /_ -163.1    0.9218    12.470        2-3     11.545 /_ -133.6   0.92582
   -                           3         6.63 /_   75.9   0.92089    12.470        3-1      11.49 /_  106.5   0.92138
62262 ........................ 1       6.6879 /_  -43.3   0.92894    12.470        1-2      11.53 /_  -13.4   0.92463
   -                           2       6.6361 /_ -163.1   0.92174    12.470        2-3     11.541 /_ -133.6   0.92551
   -                           3        6.627 /_   75.9   0.92047    12.470        3-1     11.484 /_  106.5   0.92093
39752 ........................ 2       6.2379 /_ -165.5   0.86642    12.470
1017350 ...................... 2       6.2377 /_ -165.5    0.8664    12.470
1017348 ...................... 2       6.2359 /_ -165.5   0.86616    12.470
56760 ........................ 1       6.6292 /_  -43.7   0.92078    12.470
56764 ........................ 1       6.6281 /_  -43.7   0.92063    12.470
39620 ........................ 2        6.516 /_ -164.5   0.90505    12.470
39617 ........................ 2        6.515 /_ -164.5   0.90492    12.470
39589 ........................ 1       6.5169 /_  -42.9   0.90518    12.470
39580 ........................ 1       6.5167 /_  -42.9   0.90516    12.470
74446 ........................ 3       6.4683 /_   74.9   0.89842    12.470
74440 ........................ 3       6.4673 /_   74.9    0.8983    12.470
58430 ........................ 1       6.6369 /_  -43.7   0.92184    12.470        1-2     11.432 /_  -13.8   0.91674
   -                           2       6.5769 /_ -163.5   0.91352    12.470        2-3     11.452 /_ -134.2   0.91834
   -                           3       6.5652 /_   75.2   0.91189    12.470        3-1     11.373 /_  105.9   0.91206
58429 ........................ 1       6.6389 /_  -43.7   0.92213    12.470        1-2     11.431 /_  -13.8   0.91667
   -                           2       6.5755 /_ -163.5   0.91332    12.470        2-3     11.451 /_ -134.2   0.91829
   -                           3       6.5616 /_   75.2   0.91139    12.470        3-1      11.37 /_  105.9   0.91176
28213 ........................ 1       6.6856 /_  -42.8   0.92862    12.470
21655 ........................ 1       6.6807 /_  -42.8   0.92793    12.470
63666 ........................ 1       6.7447 /_  -42.4   0.93683    12.470
   -                           3       6.8286 /_   77.2   0.94848    12.470        3-1     11.731 /_  107.2   0.94072
28249 ........................ 1         6.74 /_  -42.4   0.93616    12.470
   -                           3       6.8274 /_   77.2    0.9483    12.470        3-1     11.728 /_  107.2   0.94049
105409 ....................... 1       6.7391 /_  -42.4   0.93604    12.470        1-2     11.677 /_  -13.3   0.93638
   -                           2       6.6497 /_ -163.8   0.92362    12.470        2-3     11.635 /_ -133.0   0.93305
   -                           3       6.8294 /_   76.9   0.94859    12.470        3-1     11.705 /_  107.0   0.93869
52524 ........................ 1       6.7368 /_  -42.3   0.93573    12.470        1-2     11.674 /_  -13.3   0.93613
   -                           2       6.6446 /_ -163.8   0.92291    12.470        2-3      11.63 /_ -133.0   0.93264
   -                           3       6.8312 /_   76.9   0.94883    12.470        3-1     11.704 /_  107.0   0.93856
74424 ........................ 1       6.5921 /_  -44.0   0.91563    12.470
39733 ........................ 1       6.5898 /_  -44.0    0.9153    12.470
8111 ......................... 1       6.7139 /_  -42.6   0.93254    12.470        1-2     11.652 /_  -13.3   0.93439
   -                           2       6.6664 /_ -163.7   0.92595    12.470        2-3     11.634 /_ -133.0   0.93295
   -                           3       6.8145 /_   77.0   0.94651    12.470        3-1     11.692 /_  106.9   0.93758
836 .......................... 2       6.5149 /_ -164.5    0.9049    12.470
837 .......................... 2       6.5117 /_ -164.5   0.90445    12.470
1023346 ...................... 1       6.9782 /_  -40.0   0.96926    12.470        1-2     12.071 /_  -10.4     0.968
   -                           2       6.9241 /_ -160.5   0.96174    12.470        2-3     11.985 /_ -130.1   0.96112
   -                           3       6.9625 /_   80.1   0.96708    12.470        3-1     12.083 /_  110.1   0.96893
MDV201_796USD_INT ............ 1        6.977 /_  -40.0   0.96909    12.470        1-2     12.069 /_  -10.4   0.96783
   -                           2       6.9228 /_ -160.5   0.96156    12.470        2-3     11.983 /_ -130.1   0.96095
   -                           3       6.9613 /_   80.1   0.96691    12.470        3-1     12.081 /_  110.1   0.96877
28262 ........................ 3       6.6256 /_   75.7   0.92028    12.470
28263 ........................ 3       6.6255 /_   75.7   0.92026    12.470
52519 ........................ 2       6.3158 /_ -165.7   0.87724    12.470
52521 ........................ 2       6.3146 /_ -165.7   0.87708    12.470
28199 ........................ 1       6.6971 /_  -42.7   0.93021    12.470        1-2     11.635 /_  -13.3   0.93302
   -                           2       6.6711 /_ -163.7    0.9266    12.470        2-3     11.631 /_ -133.0   0.93272
   -                           3       6.8079 /_   77.0    0.9456    12.470        3-1     11.679 /_  106.8   0.93659
28196 ........................ 1       6.6969 /_  -42.7   0.93018    12.470        1-2     11.635 /_  -13.3     0.933
   -                           2        6.671 /_ -163.7   0.92658    12.470        2-3     11.631 /_ -133.0    0.9327
   -                           3       6.8078 /_   77.0   0.94559    12.470        3-1     11.679 /_  106.8   0.93658
28264 ........................ 3       6.6258 /_   75.7    0.9203    12.470
28229 ........................ 3       6.8213 /_   77.2   0.94746    12.470
52531 ........................ 3       6.8209 /_   77.2    0.9474    12.470
14870 ........................ 1       6.7517 /_  -42.5   0.93779    12.470
46398 ........................ 3       6.5493 /_   75.1   0.90969    12.470
46399 ........................ 3       6.5447 /_   75.1   0.90904    12.470
62264 ........................ 1       6.7002 /_  -43.2   0.93064    12.470        1-2     11.545 /_  -13.3   0.92582
   -                           2       6.6372 /_ -163.1   0.92189    12.470        2-3     11.549 /_ -133.6   0.92611
   -                           3       6.6327 /_   75.9   0.92126    12.470        3-1     11.495 /_  106.5   0.92178
106895 ....................... 2       6.6372 /_ -163.1   0.92189    12.470
1163442 ...................... 3        6.628 /_   75.9   0.92062    12.470
MDV201_1163443ELB_INT ........ 3        6.628 /_   75.9   0.92062    12.470
1163443 ...................... 3        6.628 /_   75.9   0.92062    12.470
99420 ........................ 1       6.6466 /_  -43.6    0.9232    12.470        1-2     11.479 /_  -13.5   0.92056
   -                           2       6.6316 /_ -163.3   0.92111    12.470        2-3     11.515 /_ -133.8    0.9234
   -                           3        6.607 /_   75.8   0.91769    12.470        3-1     11.447 /_  106.2   0.91798
14828 ........................ 1       6.7104 /_  -42.0   0.93206    12.470        1-2     11.623 /_  -13.8   0.93209
   -                           2       6.5248 /_ -164.8   0.90628    12.470        2-3     11.519 /_ -133.2   0.92374
   -                           3       6.8694 /_   76.6   0.95414    12.470        3-1     11.673 /_  106.9   0.93612
1144249 ...................... 3       6.8694 /_   76.6   0.95414    12.470
63726 ........................ 1       6.7486 /_  -42.5   0.93736    12.470
8134 ......................... 1       6.6607 /_  -42.9   0.92515    12.470
8131 ......................... 1       6.6594 /_  -42.9   0.92497    12.470
62232 ........................ 3       6.6314 /_   75.9   0.92109    12.470
62234 ........................ 3         6.63 /_   75.9   0.92089    12.470
841 .......................... 1       6.6363 /_  -42.8   0.92176    12.470        1-2     11.508 /_  -13.7   0.92283
   -                           2       6.5557 /_ -164.3   0.91057    12.470        2-3     11.485 /_ -133.3   0.92103
   -                           3       6.7629 /_   76.6   0.93935    12.470        3-1     11.568 /_  106.6   0.92767
8083 ......................... 1       6.6274 /_  -42.8   0.92053    12.470        1-2     11.494 /_  -13.8   0.92174
   -                           2       6.5456 /_ -164.3   0.90917    12.470        2-3     11.473 /_ -133.3   0.92006
   -                           3       6.7627 /_   76.6   0.93933    12.470        3-1     11.561 /_  106.5   0.92708
39579 ........................ 2        6.364 /_ -165.4   0.88395    12.470
52518 ........................ 2       6.3575 /_ -165.4   0.88303    12.470
782 .......................... 1       6.9282 /_  -40.5   0.96231    12.470        1-2      11.99 /_  -10.9   0.96152
   -                           2       6.8758 /_ -161.1   0.95503    12.470        2-3     11.918 /_ -130.7   0.95575
   -                           3       6.9318 /_   79.5   0.96281    12.470        3-1     12.007 /_  109.5   0.96286
783 .......................... 1       6.9136 /_  -40.7   0.96028    12.470        1-2     11.967 /_  -11.1    0.9597
   -                           2       6.8614 /_ -161.3   0.95304    12.470        2-3     11.899 /_ -130.8   0.95423
   -                           3       6.9243 /_   79.4   0.96176    12.470        3-1     11.985 /_  109.3   0.96113
8132 ......................... 1        6.656 /_  -42.9    0.9245    12.470
8133 ......................... 1       6.6559 /_  -42.9   0.92449    12.470
MDV201_C_1P032_1160490_INT ... 1       6.5793 /_  -42.9   0.91384    12.470
1160490 ...................... 1       6.5793 /_  -42.9   0.91384    12.470
100477 ....................... 3        6.837 /_   76.5   0.94964    12.470
28274 ........................ 3       6.8362 /_   76.5   0.94954    12.470
63677 ........................ 1       6.7436 /_  -42.4   0.93667    12.470
63676 ........................ 1        6.743 /_  -42.4   0.93658    12.470
102184 ....................... 3       6.6101 /_   75.7   0.91813    12.470
28266 ........................ 3       6.6101 /_   75.7   0.91812    12.470
39772 ........................ 3       6.5947 /_   75.6   0.91598    12.470
39773 ........................ 3       6.5945 /_   75.6   0.91596    12.470
28241 ........................ 1       6.7299 /_  -42.5   0.93477    12.470
28238 ........................ 1       6.7279 /_  -42.5   0.93449    12.470
848 .......................... 2       6.5284 /_ -164.4   0.90678    12.470
1144260 ...................... 2       6.5284 /_ -164.4   0.90678    12.470
8095 ......................... 3       6.7495 /_   76.5   0.93748    12.470
8098 ......................... 3       6.7488 /_   76.5   0.93739    12.470
849 .......................... 2       6.5207 /_ -164.5    0.9057    12.470
850 .......................... 2        6.519 /_ -164.5   0.90548    12.470
63714 ........................ 1       6.7514 /_  -42.5   0.93775    12.470        1-2      11.66 /_  -12.9   0.93508
   -                           2       6.6829 /_ -163.0   0.92823    12.470        2-3     11.639 /_ -133.0   0.93339
   -                           3       6.7406 /_   76.8   0.93625    12.470        3-1     11.644 /_  107.1   0.93373
63711 ........................ 1       6.7469 /_  -42.6   0.93713    12.470        1-2     11.645 /_  -13.0   0.93382
   -                           2       6.6742 /_ -163.0   0.92704    12.470        2-3     11.625 /_ -133.1   0.93222
   -                           3       6.7225 /_   76.6   0.93374    12.470        3-1      11.62 /_  107.1   0.93181
1160484 ...................... 2       6.2238 /_ -165.5   0.86447    12.470
1160485 ...................... 2       6.2232 /_ -165.5   0.86439    12.470
8127 ......................... 1       6.6583 /_  -42.9   0.92482    12.470
8128 ......................... 1       6.6575 /_  -42.9   0.92471    12.470
8119 ......................... 1       6.6181 /_  -42.9   0.91924    12.470
8117 ......................... 1       6.6177 /_  -42.9   0.91918    12.470
63709 ........................ 1       6.7414 /_  -42.5   0.93636    12.470
63710 ........................ 1       6.7409 /_  -42.5    0.9363    12.470
21654 ........................ 1       6.6774 /_  -42.8   0.92748    12.470
21653 ........................ 1       6.6739 /_  -42.8   0.92699    12.470
63708 ........................ 3       6.8084 /_   76.8   0.94567    12.470
63703 ........................ 3       6.8056 /_   76.8   0.94529    12.470
58411 ........................ 1       6.6396 /_  -43.8   0.92223    12.470        1-2     11.429 /_  -13.8    0.9165
   -                           2       6.5751 /_ -163.5   0.91327    12.470        2-3      11.45 /_ -134.2   0.91824
   -                           3       6.5572 /_   75.2   0.91078    12.470        3-1     11.365 /_  105.9   0.91141
106254 ....................... 1       6.6396 /_  -43.8   0.92223    12.470
1012405 ...................... 3       6.6703 /_   75.9   0.92649    12.470
1012407 ...................... 3       6.6701 /_   75.9   0.92646    12.470
810 .......................... 1       6.7222 /_  -42.6    0.9337    12.470        1-2     11.662 /_  -13.3   0.93522
   -                           2       6.6643 /_ -163.8   0.92566    12.470        2-3     11.637 /_ -133.0   0.93324
   -                           3       6.8231 /_   77.0   0.94771    12.470        3-1     11.703 /_  107.0   0.93851
1010731 ...................... 1        6.719 /_  -42.6   0.93325    12.470        1-2     11.658 /_  -13.3   0.93487
   -                           2        6.665 /_ -163.7   0.92576    12.470        2-3     11.636 /_ -133.0   0.93309
   -                           3       6.8189 /_   77.0   0.94713    12.470        3-1     11.698 /_  106.9   0.93808
39745 ........................ 3       6.4711 /_   74.9   0.89882    12.470
74453 ........................ 3        6.469 /_   74.9   0.89853    12.470
6580 ......................... 1       6.6497 /_  -43.6   0.92362    12.470        1-2     11.483 /_  -13.5   0.92088
   -                           2       6.6321 /_ -163.3   0.92119    12.470        2-3     11.517 /_ -133.8   0.92358
   -                           3       6.6085 /_   75.8   0.91791    12.470        3-1      11.45 /_  106.2   0.91821
6582 ......................... 1       6.6469 /_  -43.6   0.92323    12.470        1-2      11.48 /_  -13.5    0.9206
   -                           2       6.6317 /_ -163.3   0.92112    12.470        2-3     11.515 /_ -133.8   0.92342
   -                           3       6.6071 /_   75.8   0.91771    12.470        3-1     11.447 /_  106.2     0.918
1012412 ...................... 3       6.6694 /_   75.9   0.92636    12.470
69622 ........................ 2       6.3334 /_ -165.6   0.87969    12.470
69620 ........................ 2       6.3294 /_ -165.6   0.87914    12.470
63654 ........................ 1       6.7836 /_  -42.1   0.94222    12.470        1-2     11.744 /_  -12.7   0.94181
   -                           2        6.722 /_ -162.9   0.93367    12.470        2-3     11.711 /_ -132.5   0.93912
   -                           3       6.8264 /_   77.5   0.94817    12.470        3-1      11.76 /_  107.6   0.94308
14891 ........................ 1       6.7759 /_  -42.2   0.94115    12.470        1-2     11.726 /_  -12.7   0.94032
   -                           2       6.7141 /_ -162.9   0.93257    12.470        2-3     11.695 /_ -132.6   0.93788
   -                           3       6.8078 /_   77.3   0.94559    12.470        3-1     11.735 /_  107.5   0.94107
56756 ........................ 2       6.2367 /_ -165.5   0.86626    12.470
1103250 ...................... 2       6.2367 /_ -165.5   0.86626    12.470
6581 ......................... 2       6.2377 /_ -165.5    0.8664    12.470
14876 ........................ 3        6.809 /_   76.8   0.94575    12.470
14872 ........................ 3       6.8085 /_   76.8   0.94569    12.470
1144245 ...................... 2       6.4517 /_ -165.0   0.89612    12.470
62301 ........................ 2       6.4513 /_ -165.0   0.89607    12.470
806 .......................... 2       6.6678 /_ -163.4   0.92614    12.470
809 .......................... 2       6.6639 /_ -163.4    0.9256    12.470
28248 ........................ 1       6.7303 /_  -42.5   0.93482    12.470
28242 ........................ 1       6.7297 /_  -42.5   0.93473    12.470
74420 ........................ 1       6.6286 /_  -43.8    0.9207    12.470        1-2     11.441 /_  -13.7   0.91745
   -                           2       6.5989 /_ -163.5   0.91657    12.470        2-3     11.472 /_ -134.0   0.91993
   -                           3       6.5834 /_   75.5   0.91441    12.470        3-1     11.401 /_  106.0   0.91424
74428 ........................ 1        6.629 /_  -43.7   0.92076    12.470        1-2     11.439 /_  -13.7   0.91735
   -                           2       6.5958 /_ -163.5   0.91615    12.470        2-3     11.469 /_ -134.0   0.91969
   -                           3       6.5818 /_   75.5   0.91419    12.470        3-1     11.398 /_  106.0   0.91399
14831 ........................ 3       6.8637 /_   76.6   0.95335    12.470
14833 ........................ 3       6.8542 /_   76.6   0.95203    12.470
28251 ........................ 1       6.7364 /_  -42.4   0.93566    12.470
   -                           3       6.8269 /_   77.2   0.94824    12.470        3-1     11.726 /_  107.2   0.94035
14893 ........................ 1       6.7327 /_  -42.5   0.93516    12.470
   -                           3       6.8264 /_   77.2   0.94817    12.470        3-1     11.724 /_  107.1   0.94022
74456 ........................ 3       6.5241 /_   75.1   0.90618    12.470
46407 ........................ 3       6.5143 /_   75.1   0.90482    12.470
94736 ........................ 1       6.5072 /_  -43.0   0.90384    12.470
94737 ........................ 1       6.5068 /_  -43.0   0.90378    12.470
89779 ........................ 3       6.6659 /_   75.8   0.92588    12.470
89780 ........................ 3       6.6652 /_   75.8   0.92578    12.470
100480 ....................... 3       6.8099 /_   76.8   0.94588    12.470
1000988 ...................... 1       6.6225 /_  -42.9   0.91985    12.470
1000987 ...................... 1       6.6224 /_  -42.9   0.91984    12.470
28287 ........................ 1       6.5244 /_  -43.0   0.90622    12.470        1-2     11.274 /_  -14.5    0.9041
   -                           2       6.3617 /_ -165.1   0.88363    12.470        2-3     11.226 /_ -133.9   0.90022
   -                           3       6.6587 /_   75.8   0.92488    12.470        3-1      11.35 /_  106.0   0.91015
28288 ........................ 1       6.5256 /_  -43.0   0.90639    12.470        1-2     11.274 /_  -14.5   0.90406
   -                           2       6.3604 /_ -165.1   0.88345    12.470        2-3     11.223 /_ -133.9   0.90003
   -                           3       6.6553 /_   75.8   0.92441    12.470        3-1     11.346 /_  106.0   0.90988
MDV201_1010732USD_INT ........ 1       6.7189 /_  -42.6   0.93323    12.470        1-2     11.658 /_  -13.3   0.93486
   -                           2        6.665 /_ -163.7   0.92576    12.470        2-3     11.636 /_ -133.0   0.93309
   -                           3       6.8189 /_   77.0   0.94712    12.470        3-1     11.698 /_  106.9   0.93807
1010732 ...................... 1       6.7189 /_  -42.6   0.93323    12.470        1-2     11.658 /_  -13.3   0.93486
   -                           2        6.665 /_ -163.7   0.92576    12.470        2-3     11.636 /_ -133.0   0.93309
   -                           3       6.8188 /_   77.0   0.94712    12.470        3-1     11.698 /_  106.9   0.93806
28226 ........................ 1       6.7429 /_  -42.4   0.93657    12.470        1-2     11.685 /_  -13.2   0.93705
   -                           2       6.6659 /_ -163.6   0.92587    12.470        2-3      11.65 /_ -132.9   0.93426
   -                           3       6.8282 /_   77.0   0.94842    12.470        3-1     11.715 /_  107.1   0.93946
1144262 ...................... 3       6.8282 /_   77.0   0.94842    12.470
1127424 ...................... 1       6.5471 /_  -42.9   0.90938    12.470        1-2     11.365 /_  -14.2   0.91139
   -                           2       6.4447 /_ -165.0   0.89515    12.470        2-3     11.347 /_ -133.5   0.90995
   -                           3       6.7485 /_   76.4   0.93735    12.470        3-1     11.476 /_  106.2   0.92027
56751 ........................ 1       6.6336 /_  -43.7   0.92139    12.470        1-2     11.462 /_  -13.6   0.91914
   -                           2       6.6265 /_ -163.4    0.9204    12.470        2-3     11.503 /_ -133.9   0.92244
   -                           3        6.599 /_   75.8   0.91658    12.470        3-1     11.432 /_  106.1   0.91676
56762 ........................ 1       6.6303 /_  -43.8   0.92093    12.470        1-2     11.457 /_  -13.6   0.91874
   -                           2       6.6246 /_ -163.4   0.92014    12.470        2-3     11.499 /_ -133.9   0.92214
   -                           3       6.5965 /_   75.8   0.91624    12.470        3-1     11.427 /_  106.1   0.91639
6572 ......................... 2       6.2967 /_ -165.3    0.8746    12.470
1144253 ...................... 2       6.2967 /_ -165.3    0.8746    12.470
28282 ........................ 1       6.5222 /_  -43.0   0.90592    12.470
28281 ........................ 1         6.52 /_  -43.1   0.90561    12.470
94747 ........................ 1       6.5054 /_  -43.0   0.90359    12.470
39588 ........................ 2       6.3145 /_ -165.7   0.87707    12.470
39621 ........................ 2       6.5028 /_ -164.6   0.90323    12.470
1010738 ...................... 1       6.5933 /_  -42.9   0.91579    12.470
8143 ......................... 1       6.5912 /_  -42.9    0.9155    12.470
1017349 ...................... 2       6.2353 /_ -165.5   0.86606    12.470
63680 ........................ 1       6.7512 /_  -42.4   0.93772    12.470        1-2     11.705 /_  -13.0   0.93865
   -                           2       6.6919 /_ -163.4   0.92949    12.470        2-3     11.676 /_ -132.8   0.93636
   -                           3       6.8336 /_   77.2   0.94917    12.470        3-1     11.738 /_  107.2   0.94129
63681 ........................ 1       6.7488 /_  -42.4   0.93739    12.470        1-2       11.7 /_  -13.1   0.93824
   -                           2       6.6864 /_ -163.5   0.92873    12.470        2-3      11.67 /_ -132.8   0.93589
   -                           3        6.832 /_   77.2   0.94895    12.470        3-1     11.733 /_  107.2   0.94087
58431 ........................ 1       6.6407 /_  -43.7   0.92237    12.470        1-2      11.43 /_  -13.8   0.91663
   -                           2       6.5746 /_ -163.5   0.91319    12.470        2-3     11.451 /_ -134.2   0.91825
   -                           3       6.5584 /_   75.2   0.91095    12.470        3-1     11.366 /_  105.9    0.9115
106259 ....................... 3       6.5584 /_   75.2   0.91094    12.470
823 .......................... 1       6.7172 /_  -42.6     0.933    12.470        1-2     11.655 /_  -13.3   0.93468
   -                           2       6.6655 /_ -163.7   0.92582    12.470        2-3     11.635 /_ -133.0   0.93302
   -                           3       6.8167 /_   77.0   0.94682    12.470        3-1     11.695 /_  106.9   0.93784
39618 ........................ 2       6.5023 /_ -164.6   0.90315    12.470
1140226 ...................... 3       6.8127 /_   76.8   0.94626    12.470
94731 ........................ 3       6.8123 /_   76.8   0.94621    12.470
28186 ........................ 1       6.6964 /_  -42.8   0.93011    12.470        1-2     11.634 /_  -13.3   0.93293
   -                           2       6.6705 /_ -163.7   0.92652    12.470        2-3      11.63 /_ -133.0   0.93265
   -                           3       6.8076 /_   77.0   0.94555    12.470        3-1     11.678 /_  106.8   0.93653
854 .......................... 1       6.6963 /_  -42.8    0.9301    12.470        1-2     11.634 /_  -13.3   0.93292
   -                           2       6.6704 /_ -163.7   0.92651    12.470        2-3      11.63 /_ -133.0   0.93264
   -                           3       6.8075 /_   77.0   0.94554    12.470        3-1     11.678 /_  106.8   0.93652
28284 ........................ 1       6.5246 /_  -43.0   0.90625    12.470        1-2     11.277 /_  -14.5   0.90434
   -                           2       6.3632 /_ -165.1   0.88383    12.470        2-3      11.23 /_ -133.9   0.90055
   -                           3       6.6654 /_   75.8   0.92581    12.470        3-1     11.357 /_  106.0   0.91073
28286 ........................ 1       6.5246 /_  -43.0   0.90625    12.470        1-2     11.276 /_  -14.5   0.90427
   -                           2       6.3627 /_ -165.1   0.88376    12.470        2-3     11.229 /_ -133.9   0.90044
   -                           3       6.6633 /_   75.8   0.92552    12.470        3-1     11.355 /_  106.0   0.91055
8090 ......................... 1       6.6326 /_  -42.8   0.92125    12.470
   -                           3       6.7545 /_   76.6   0.93819    12.470        3-1     11.558 /_  106.6   0.92686
8092 ......................... 1       6.6294 /_  -42.8   0.92081    12.470
808 .......................... 1       6.8389 /_  -41.3   0.94991    12.470
814 .......................... 1       6.8371 /_  -41.3   0.94966    12.470
14829 ........................ 2       6.5032 /_ -164.9   0.90328    12.470
830 .......................... 3       6.7537 /_   76.5   0.93807    12.470
831 .......................... 3       6.7503 /_   76.5    0.9376    12.470
1008229 ...................... 2       6.4448 /_ -165.0   0.89517    12.470
1008227 ...................... 2       6.4446 /_ -165.0   0.89514    12.470
28189 ........................ 1       6.6965 /_  -42.7   0.93012    12.470        1-2     11.634 /_  -13.3   0.93295
   -                           2       6.6706 /_ -163.7   0.92653    12.470        2-3      11.63 /_ -133.0   0.93266
   -                           3       6.8077 /_   77.0   0.94557    12.470        3-1     11.679 /_  106.8   0.93654
785 .......................... 1       6.8481 /_  -41.3   0.95119    12.470
790 .......................... 1       6.8445 /_  -41.3   0.95069    12.470
1160477 ...................... 2       6.2259 /_ -165.5   0.86477    12.470
MDV201_15005ELB_INT .......... 2       6.2259 /_ -165.5   0.86476    12.470
1149717 ...................... 1       6.6272 /_  -43.8    0.9205    12.470        1-2     11.446 /_  -13.7   0.91785
   -                           2       6.6104 /_ -163.5   0.91816    12.470        2-3     11.483 /_ -134.0   0.92084
   -                           3        6.589 /_   75.6   0.91519    12.470        3-1     11.411 /_  106.0   0.91511
8205 ......................... 2       6.2339 /_ -165.5   0.86587    12.470
8204 ......................... 2       6.2337 /_ -165.5   0.86585    12.470
802 .......................... 2       6.6781 /_ -163.3   0.92758    12.470
804 .......................... 2       6.6773 /_ -163.3   0.92746    12.470
94733 ........................ 2       6.3212 /_ -165.6     0.878    12.470
94734 ........................ 2        6.321 /_ -165.6   0.87797    12.470
14875 ........................ 1        6.733 /_  -42.3   0.93519    12.470
1012406 ...................... 3       6.6745 /_   75.9   0.92707    12.470
39764 ........................ 1       6.6789 /_  -43.4   0.92768    12.470        1-2     11.519 /_  -13.4   0.92375
   -                           2       6.6354 /_ -163.2   0.92164    12.470        2-3     11.536 /_ -133.7   0.92507
   -                           3       6.6227 /_   75.9   0.91987    12.470        3-1     11.476 /_  106.4   0.92031
15011 ........................ 1       6.6679 /_  -43.5   0.92616    12.470        1-2     11.506 /_  -13.4   0.92268
   -                           2       6.6344 /_ -163.2    0.9215    12.470        2-3     11.529 /_ -133.7   0.92453
   -                           3       6.6174 /_   75.9   0.91914    12.470        3-1     11.467 /_  106.3   0.91954
8087 ......................... 3       6.7545 /_   76.6   0.93819    12.470
855 .......................... 3       6.7508 /_   76.5   0.93767    12.470
69623 ........................ 1       6.5231 /_  -43.0   0.90603    12.470        1-2     11.287 /_  -14.5   0.90511
   -                           2       6.3694 /_ -165.2    0.8847    12.470        2-3     11.246 /_ -133.8   0.90184
   -                           3       6.6916 /_   76.0   0.92945    12.470        3-1     11.384 /_  106.1   0.91294
108027 ....................... 3       6.6916 /_   76.0   0.92945    12.470
63638 ........................ 1       6.8575 /_  -41.3   0.95248    12.470        1-2     11.878 /_  -11.7   0.95256
   -                           2       6.8073 /_ -162.0   0.94551    12.470        2-3     11.826 /_ -131.5   0.94835
   -                           3       6.8928 /_   78.6   0.95739    12.470        3-1     11.902 /_  108.6   0.95444
1010727 ...................... 1       6.8574 /_  -41.3   0.95248    12.470
39763 ........................ 1       6.6812 /_  -43.4     0.928    12.470        1-2     11.522 /_  -13.4   0.92397
   -                           2       6.6356 /_ -163.2   0.92166    12.470        2-3     11.537 /_ -133.7   0.92519
   -                           3       6.6237 /_   75.9   0.92002    12.470        3-1     11.478 /_  106.4   0.92046
39762 ........................ 1       6.6812 /_  -43.4     0.928    12.470        1-2     11.522 /_  -13.4   0.92397
   -                           2       6.6356 /_ -163.2   0.92166    12.470        2-3     11.537 /_ -133.7   0.92519
   -                           3       6.6237 /_   75.9   0.92002    12.470        3-1     11.478 /_  106.4   0.92046
89785 ........................ 3       6.6648 /_   75.8   0.92572    12.470
1145433 ...................... 3       6.6648 /_   75.8   0.92572    12.470
8108 ......................... 3       6.7485 /_   76.5   0.93735    12.470
14881 ........................ 1        6.724 /_  -42.5   0.93394    12.470
14878 ........................ 1       6.7236 /_  -42.5   0.93389    12.470
69485 ........................ 2       6.4435 /_ -165.0   0.89499    12.470
69488 ........................ 2       6.4432 /_ -165.0   0.89494    12.470
1160482 ...................... 2       6.2225 /_ -165.5   0.86429    12.470
1160487 ...................... 2        6.222 /_ -165.5   0.86422    12.470
8169 ......................... 2       6.6631 /_ -163.0   0.92548    12.470
8168 ......................... 2       6.6625 /_ -163.0    0.9254    12.470
1163438 ...................... 3        6.628 /_   75.9   0.92062    12.470
MDV201_1163441ELB_INT ........ 3        6.628 /_   75.9   0.92062    12.470
1163441 ...................... 3        6.628 /_   75.9   0.92062    12.470
14851 ........................ 2       6.6961 /_ -163.0   0.93007    12.470
14852 ........................ 2       6.6958 /_ -163.0   0.93003    12.470
1160496 ...................... 1       6.5567 /_  -43.0   0.91071    12.470
MDV201_8082ELB_INT ........... 1       6.5567 /_  -43.0   0.91071    12.470
8082 ......................... 1       6.5567 /_  -43.0   0.91071    12.470
14848 ........................ 3       6.8107 /_   76.8   0.94599    12.470
14871 ........................ 3       6.8099 /_   76.8   0.94588    12.470
1144267 ...................... 2       6.6643 /_ -163.8   0.92566    12.470
1144266 ...................... 2       6.6635 /_ -163.8   0.92554    12.470
28297 ........................ 3        6.846 /_   76.5   0.95089    12.470
28298 ........................ 3       6.8416 /_   76.5   0.95029    12.470
69626 ........................ 3       6.6915 /_   76.0   0.92943    12.470
46400 ........................ 3       6.5447 /_   75.1   0.90904    12.470
46402 ........................ 3       6.5445 /_   75.1   0.90902    12.470
63684 ........................ 1        6.746 /_  -42.4     0.937    12.470        1-2     11.694 /_  -13.1   0.93777
   -                           2       6.6795 /_ -163.5   0.92777    12.470        2-3     11.663 /_ -132.8   0.93531
   -                           3       6.8307 /_   77.1   0.94877    12.470        3-1     11.726 /_  107.1   0.94036
1144263 ...................... 1        6.746 /_  -42.4     0.937    12.470
1144261 ...................... 3       6.7617 /_   76.6   0.93918    12.470
833 .......................... 3       6.7566 /_   76.6   0.93848    12.470
39615 ........................ 2       6.5141 /_ -164.5   0.90479    12.470
39616 ........................ 2       6.5138 /_ -164.5   0.90475    12.470
39611 ........................ 1       6.5364 /_  -42.9   0.90789    12.470        1-2     11.341 /_  -14.3   0.90943
   -                           2       6.4222 /_ -165.1   0.89202    12.470        2-3      11.32 /_ -133.5   0.90777
   -                           3       6.7408 /_   76.3   0.93628    12.470        3-1     11.456 /_  106.2   0.91872
103731 ....................... 1       6.5364 /_  -42.9   0.90789    12.470
1160500 ...................... 1       6.5795 /_  -42.9   0.91387    12.470
1160501 ...................... 1       6.5793 /_  -42.9   0.91385    12.470
792 .......................... 2        6.675 /_ -163.3   0.92714    12.470
799 .......................... 2       6.6749 /_ -163.3   0.92713    12.470
28293 ........................ 3       6.8031 /_   76.8   0.94494    12.470
28294 ........................ 3       6.8027 /_   76.7   0.94487    12.470
1000985 ...................... 1       6.6225 /_  -42.9   0.91985    12.470
1000986 ...................... 1       6.6213 /_  -42.9   0.91968    12.470
8110 ......................... 3       6.8106 /_   76.9   0.94597    12.470
8114 ......................... 3       6.8098 /_   76.9   0.94586    12.470
103729 ....................... 2       6.3836 /_ -165.2   0.88666    12.470
39584 ........................ 2       6.3789 /_ -165.3   0.88601    12.470
56781 ........................ 1       6.6279 /_  -43.8   0.92059    12.470        1-2     11.443 /_  -13.7   0.91766
   -                           2       6.6049 /_ -163.5   0.91741    12.470        2-3     11.478 /_ -134.0   0.92041
   -                           3       6.5864 /_   75.6   0.91484    12.470        3-1     11.406 /_  106.0    0.9147
1160504 ...................... 1       6.5799 /_  -42.9   0.91393    12.470
1160505 ...................... 1       6.5794 /_  -42.9   0.91387    12.470
62236 ........................ 3       6.6353 /_   75.9   0.92163    12.470
62237 ........................ 3       6.6282 /_   75.9   0.92064    12.470
103728 ....................... 1       6.5232 /_  -42.9   0.90606    12.470
39590 ........................ 1       6.5202 /_  -42.9   0.90564    12.470
MDV201_15008ELB_INT .......... 2       6.2307 /_ -165.5   0.86543    12.470
15008 ........................ 2       6.2307 /_ -165.5   0.86543    12.470
39599 ........................ 2       6.4099 /_ -165.1   0.89032    12.470
39600 ........................ 2       6.4099 /_ -165.1   0.89032    12.470
8162 ......................... 2       6.6655 /_ -163.0   0.92582    12.470
44580 ........................ 2       6.6643 /_ -163.0   0.92565    12.470
28233 ........................ 3        6.823 /_   77.2    0.9477    12.470
28228 ........................ 3       6.8221 /_   77.2   0.94757    12.470
816 .......................... 2       6.6591 /_ -163.4   0.92493    12.470
826 .......................... 2       6.6587 /_ -163.4   0.92488    12.470
1160462 ...................... 1       6.5543 /_  -43.0   0.91038    12.470
39576 ........................ 1       6.5224 /_  -42.9   0.90595    12.470        1-2     11.298 /_  -14.4   0.90604
   -                           2       6.3768 /_ -165.2   0.88573    12.470        2-3     11.264 /_ -133.7   0.90328
   -                           3       6.7194 /_   76.1    0.9333    12.470        3-1     11.414 /_  106.1   0.91533
52517 ........................ 1       6.5223 /_  -42.9   0.90593    12.470        1-2     11.296 /_  -14.4   0.90583
   -                           2       6.3744 /_ -165.2   0.88539    12.470        2-3      11.26 /_ -133.7   0.90296
   -                           3       6.7152 /_   76.1   0.93272    12.470        3-1     11.409 /_  106.1   0.91493
788 .......................... 1       6.9456 /_  -40.4   0.96473    12.470        1-2     12.017 /_  -10.8   0.96369
   -                           2       6.8928 /_ -160.9    0.9574    12.470        2-3     11.941 /_ -130.5   0.95756
   -                           3       6.9409 /_   79.8   0.96407    12.470        3-1     12.033 /_  109.7   0.96493
94739 ........................ 1       6.5063 /_  -43.0   0.90371    12.470
94742 ........................ 1       6.5058 /_  -43.0   0.90364    12.470
106882 ....................... 2       6.6453 /_ -163.0   0.92301    12.470
38389 ........................ 2       6.6447 /_ -163.0   0.92293    12.470
63669 ........................ 3       6.7429 /_   76.5   0.93657    12.470
63670 ........................ 3       6.7428 /_   76.5   0.93656    12.470
8101 ......................... 1       6.5799 /_  -42.9   0.91393    12.470
MDV201_1160504ELB_INT ........ 1       6.5799 /_  -42.9   0.91393    12.470
1010728 ...................... 1       6.8414 /_  -41.3   0.95026    12.470
28222 ........................ 3       6.8245 /_   77.0   0.94791    12.470
28223 ........................ 3       6.8228 /_   77.0   0.94767    12.470
94728 ........................ 2        6.351 /_ -165.4   0.88213    12.470
94740 ........................ 2       6.3447 /_ -165.5   0.88126    12.470
8079 ......................... 1       6.5933 /_  -42.9   0.91579    12.470        1-2     11.444 /_  -13.9   0.91772
   -                           2       6.5152 /_ -164.5   0.90494    12.470        2-3     11.432 /_ -133.4   0.91679
   -                           3       6.7575 /_   76.6    0.9386    12.470        3-1      11.53 /_  106.4   0.92465
8078 ......................... 1       6.5866 /_  -42.9   0.91486    12.470        1-2     11.433 /_  -13.9   0.91682
   -                           2       6.5068 /_ -164.6   0.90378    12.470        2-3     11.422 /_ -133.4   0.91594
   -                           3       6.7556 /_   76.5   0.93834    12.470        3-1     11.523 /_  106.4   0.92404
1012411 ...................... 3       6.6703 /_   75.9   0.92649    12.470
1012408 ...................... 3       6.6702 /_   75.9   0.92647    12.470
1160458 ...................... 1       6.5888 /_  -42.9   0.91516    12.470
62242 ........................ 1       6.7137 /_  -43.1   0.93252    12.470        1-2     11.561 /_  -13.3   0.92713
   -                           2       6.6395 /_ -163.0    0.9222    12.470        2-3     11.558 /_ -133.6   0.92684
   -                           3       6.6381 /_   75.9   0.92202    12.470        3-1     11.506 /_  106.6   0.92268
1144243 ...................... 3       6.8096 /_   77.0   0.94584    12.470
69621 ........................ 2       6.3391 /_ -165.5   0.88048    12.470
...